@<TRIPOS>MOLECULE
MTD
51   52    1
SMALL
USER_CHARGES


@<TRIPOS>ATOM
      1 C1         40.6800   35.2600   40.3000 C.ar      1 MTD         0.0000 
      2 C2         41.3300   34.1700   39.7100 C.ar      1 MTD         0.0000 
      3 C3         41.2900   32.9200   40.3200 C.ar      1 MTD         0.0000 
      4 C4         40.6200   32.7600   41.5400 C.ar      1 MTD         0.0000 
      5 C5         39.9800   33.8600   42.1300 C.ar      1 MTD         0.0000 
      6 C6         39.9100   35.1300   41.4900 C.ar      1 MTD         0.0000 
      7 C7         39.2000   36.3800   42.1900 C.3       1 MTD         0.0000 
      8 C8         38.5800   37.3300   41.1200 C.3       1 MTD         0.0000 
      9 O1         38.6800   37.1000   39.9100 O.3       1 MTD         0.0000 
     10 C9         37.6700   38.4800   41.5100 C.3       1 MTD         0.0000 
     11 C10        37.6800   39.7100   40.5600 C.3       1 MTD         0.0000 
     12 C11        40.3400   36.9300   43.2000 C.3       1 MTD         0.0000 
     13 C12        40.9200   38.3900   43.4200 C.3       1 MTD         0.0000 
     14 C13        40.4800   39.5800   42.5500 C.3       1 MTD         0.0000 
     15 N1         41.0600   38.8300   44.9000 N.4       1 MTD         0.0000 
     16 C14        39.7800   39.1000   45.6900 C.3       1 MTD         0.0000 
     17 C15        42.0400   38.0000   45.7200 C.3       1 MTD         0.0000 
     18 C16        37.9500   35.9300   43.0500 C.ar      1 MTD         0.0000 
     19 C17        37.2000   34.7500   42.8000 C.ar      1 MTD         0.0000 
     20 C18        36.1600   34.3500   43.6400 C.ar      1 MTD         0.0000 
     21 C19        35.7700   35.1600   44.7100 C.ar      1 MTD         0.0000 
     22 C20        36.4200   36.3700   44.9300 C.ar      1 MTD         0.0000 
     23 C21        37.4800   36.7400   44.1200 C.ar      1 MTD         0.0000 
     24 H1         40.7900   36.2300   39.8200 H         1 MTD         0.0000 
     25 H2         41.8800   34.3200   38.7900 H         1 MTD         0.0000 
     26 H3         41.8000   32.0800   39.8700 H         1 MTD         0.0000 
     27 H4         40.6100   31.8000   42.0300 H         1 MTD         0.0000 
     28 H5         39.5100   33.7100   43.0800 H         1 MTD         0.0000 
     29 H6         36.6400   38.0700   41.5300 H         1 MTD         0.0000 
     30 H7         37.8900   38.8300   42.5300 H         1 MTD         0.0000 
     31 H8         37.0100   40.5000   40.9400 H         1 MTD         0.0000 
     32 H9         37.3300   39.4200   39.5500 H         1 MTD         0.0000 
     33 H10        38.7000   40.1400   40.4600 H         1 MTD         0.0000 
     34 H11        40.0900   36.5200   44.2000 H         1 MTD         0.0000 
     35 H12        41.2800   36.3700   42.9600 H         1 MTD         0.0000 
     36 H13        42.0000   38.3100   43.1000 H         1 MTD         0.0000 
     37 H14        41.2100   40.4100   42.6700 H         1 MTD         0.0000 
     38 H15        39.5000   39.9900   42.8500 H         1 MTD         0.0000 
     39 H16        40.4800   39.3100   41.4800 H         1 MTD         0.0000 
     40 H17        40.0700   39.5900   46.6400 H         1 MTD         0.0000 
     41 H18        39.2700   38.1300   45.8500 H         1 MTD         0.0000 
     42 H19        39.1800   39.8100   45.0700 H         1 MTD         0.0000 
     43 H20        42.1200   38.4800   46.7100 H         1 MTD         0.0000 
     44 H21        43.0100   38.0300   45.1800 H         1 MTD         0.0000 
     45 H22        41.6300   36.9700   45.7900 H         1 MTD         0.0000 
     46 H23        37.4300   34.1100   41.9700 H         1 MTD         0.0000 
     47 H24        35.6500   33.4100   43.4600 H         1 MTD         0.0000 
     48 H25        34.9600   34.8600   45.3500 H         1 MTD         0.0000 
     49 H26        36.0900   37.0200   45.7300 H         1 MTD         0.0000 
     50 H27        37.9300   37.7000   44.3000 H         1 MTD         0.0000 
     51 H28        41.5000   39.8100   44.8400 H         1 MTD         0.0000 
@<TRIPOS>BOND
     1    1    2 ar   
     2    1    6 ar   
     3    1   24 1    
     4    2    3 ar   
     5    2   25 1    
     6    3    4 ar   
     7    3   26 1    
     8    4    5 ar   
     9    4   27 1    
    10    5    6 ar   
    11    5   28 1    
    12    6    7 1    
    13    7    8 1    
    14    7   12 1    
    15    7   18 1    
    16    8    9 1    
    17    8   10 1    
    18   10   11 1    
    19   10   29 1    
    20   10   30 1    
    21   11   31 1    
    22   11   32 1    
    23   11   33 1    
    24   12   13 1    
    25   12   34 1    
    26   12   35 1    
    27   13   14 1    
    28   13   15 1    
    29   13   36 1    
    30   14   37 1    
    31   14   38 1    
    32   14   39 1    
    33   15   16 1    
    34   15   17 1    
    35   15   51 1    
    36   16   40 1    
    37   16   41 1    
    38   16   42 1    
    39   17   43 1    
    40   17   44 1    
    41   17   45 1    
    42   18   19 ar   
    43   18   23 ar   
    44   19   20 ar   
    45   19   46 1    
    46   20   21 ar   
    47   20   47 1    
    48   21   22 ar   
    49   21   48 1    
    50   22   23 ar   
    51   22   49 1    
    52   23   50 1    
@<TRIPOS>SUBSTRUCTURE
     1 MTD         1 GROUP             0       ****    0 ROOT    
